! *** EVALUATION SOFTWARE GENERATES COMPRESSED IDF - TO OBTAIN READABLE IDF PLEASE PURCHASE A LICENCE ***
! File generated by DesignBuilder - 7.1.4.005 13/03/2023 - 17:38:14
! Source file: C:\Users\U0031365\OneDrive - Teesside University\RESEARCH\NORSCOT AKT2i\WP2 MODELLING-PROCESSING-RESULTS\DesignBuilder\20YO#Wick\20YO-upvc.dsb

! Geometry convention template : External measurements
! Zone geometry and surface areas : 2-Outer
! Zone volume calculation method : 1-Inner
! Zone floor area calculation method : 1-Inner
! Window to wall ratio method : 1-Inner

Version, 9.4.0.002;

RunPeriod,
20YO_Wick (01-01:31-12),
1,1, 2002,
12,31, 2002,
,
No,
No,
Yes,
Yes,
Yes,
No;

RunPeriodControl:DaylightSavingTime, Last Sunday in March,Last Sunday in October;


Site:Location,20YO_Wick (01-01:31-12)  (01-01:31-12),
58.45,
-3.08,
0,
36;

Site:GroundTemperature:BuildingSurface,
18,
18,
18,
18,
18,
18,
18,
18,
18,
18,
18,
18;

Site:GroundTemperature:Deep,
14,
14,
14,
14,
14,
14,
14,
14,
14,
14,
14,
14;

Site:GroundTemperature:Shallow,
14,
14,
14,
14,
14,
14,
14,
14,
14,
14,
14,
14;

Site:GroundTemperature:FCfactorMethod,
3.75,
4.63,
6.32,
7.93,
10.97,
12.57,
13.01,
12.20,
10.33,
7.99,
5.69,
4.17;

Site:GroundReflectance, 
0.2,
0.2,
0.2,
0.2,
0.2,
0.2,
0.2,
0.2,
0.2,
0.2,
0.2,
0.2;

Site:GroundReflectance:SnowModifier,
2.0,
2.0;

SimulationControl,
Yes,
Yes,
No,
No,
Yes;


SizingPeriod:DesignDay, Summer Design Day in 20YO_Wick (01-01:31-12) Jun,
6,
15,
SummerDesignDay,
18.3,
6.7,
,
,
WetBulb,
14.1,
,
,
,
,
100893.3,
0,
0,
No,
No,
Yes,
ASHRAEClearSky,
,
,
,
,
0.98;

SizingPeriod:DesignDay, Summer Design Day in 20YO_Wick (01-01:31-12) Jul,
7,
15,
SummerDesignDay,
20.1,
6.7,
,
,
WetBulb,
16.1,
,
,
,
,
100893.3,
0,
0,
No,
No,
Yes,
ASHRAEClearSky,
,
,
,
,
0.98;

SizingPeriod:DesignDay, Summer Design Day in 20YO_Wick (01-01:31-12) Aug,
8,
15,
SummerDesignDay,
20.1,
6.5,
,
,
WetBulb,
16.2,
,
,
,
,
100893.3,
0,
0,
No,
No,
Yes,
ASHRAEClearSky,
,
,
,
,
0.98;

SizingPeriod:DesignDay, Summer Design Day in 20YO_Wick (01-01:31-12) Sep,
9,
15,
SummerDesignDay,
18.6,
6.2,
,
,
WetBulb,
15.3,
,
,
,
,
100893.3,
0,
0,
No,
No,
Yes,
ASHRAEClearSky,
,
,
,
,
0.98;

SizingPeriod:DesignDay, Winter Design Day in 20YO_Wick (01-01:31-12),
1,
15,
WinterDesignDay,
-3.4,
0,
,
,
WetBulb,
-3.4,
,
,
,
,
100893.3,
3,
260,
No,
No,
No,
,
,
,
,
,
0;

Timestep, 2;

ConvergenceLimits,
1,
25;

RoofIrrigation, 
Schedule,
Roof Irrigation Schedule;


Schedule:Compact, 
Roof Irrigation Schedule, 
Any Number,
Through: 12/31,
For: AllDays,   
Until: 24:00, .00007;



Site:Precipitation, 
ScheduleAndDesignLevel,
0.75,
Site Precipitation Schedule,
0.75;


Schedule:Compact, 
Site Precipitation Schedule, 
Any Number,
Through: 12/31,
For: AllDays,   
Until: 24:00, 1;



ScheduleTypeLimits, Any Number;                         ! Not limited
ScheduleTypeLimits, Fraction,     0.0, 1.0, CONTINUOUS;
ScheduleTypeLimits, Temperature,  -60, 200, CONTINUOUS;
ScheduleTypeLimits, Control Type,   0,   4, DISCRETE;
ScheduleTypeLimits, On/Off,         0,   1, DISCRETE;

Schedule:Compact, 
      On,                                         ! Name
      Any Number,                                 ! Type
      Through: 12/31,                             ! Type
      For: AllDays,                               ! All days in year
      Until: 24:00,                               ! All hours in day
       1;     

Schedule:Compact, 
      Off,                                        ! Name
      Any Number,                                 ! Type
      Through: 12/31,                             ! Type
      For: AllDays,                               ! All days in year
      Until: 24:00,                               ! All hours in day
       0;     

Schedule:Compact, 
      Work efficiency,                            ! Name
      Any Number,                                 ! Type
      Through: 12/31,                             ! Type
      For: AllDays,                               ! All days in year
      Until: 24:00,                               ! All hours in day
       0;     

Schedule:Compact,
      OpaqueShade,                                ! Name
      Any Number,                                 ! Type
      Through: 12/31,                             ! Type
      For: AllDays,                               ! All days in year
      Until: 24:00,                               ! All hours in day
       0;     
       
Schedule:Compact,
    Zone Comfort Control Type Sched,              !- Name
    Control Type,                                 !- Schedule Type Limits Name
    Through: 12/31,                               !- Field 1
    For: AllDays,                                 !- Field 2
    Until: 24:00,                                 !- Field 3
    4;                                            !- Field 4

Schedule:Compact,
    Design Days Only,                             !- Name
    Any Number,                                   !- Schedule Type Limits Name
    Through: 12/31,                               !- Field 1
    For: SummerDesignDay WinterDesignDay,         !- Field 2
    Until: 24:00,                                 !- Field 3
    1,                                            !- Field 4
    For: AllOtherDays,                            !- Field 2
    Until: 24:00,                                 !- Field 3
    0;
      
! off heating day
Schedule:Day:Hourly,  0, Any Number,
   0,0,0,0,0,0,0,0,0,0,0,0,0,0,0,0,0,0,0,0,0,0,0,0;

! off cooling day
Schedule:Day:Hourly,  50, Any Number,
   50,50,50,50,50,50,50,50,50,50,50,50,50,50,50,50,50,50,50,50,50,50,50,50;

! used in seasonal schedules
Schedule:Day:Hourly,  Off, Fraction,
   0,0,0,0,0,0,0,0,0,0,0,0,0,0,0,0,0,0,0,0,0,0,0,0;

Schedule:Week:Daily, Off,
   Off,Off,Off,Off,
   Off,Off,Off,Off,
   Off,Off,Off,Off;

! -------------------- Control type schedules (for heating & cooling) ----------------------

Schedule:Day:Hourly, Summer Control Type Day Sch, Control Type,
   4,4,4,4,4,4,4,4,4,4,4,4,4,4,4,4,4,4,4,4,4,4,4,4;

Schedule:Day:Hourly, Winter Control Type Day Sch, Control Type,
   4,4,4,4,4,4,4,4,4,4,4,4,4,4,4,4,4,4,4,4,4,4,4,4;

Schedule:Day:Hourly, Summer Control Type Day Sch - cool, Control Type,
   2,2,2,2,2,2,2,2,2,2,2,2,2,2,2,2,2,2,2,2,2,2,2,2;

Schedule:Day:Hourly, Winter Control Type Day Sch - heat, Control Type,
   1,1,1,1,1,1,1,1,1,1,1,1,1,1,1,1,1,1,1,1,1,1,1,1;

Schedule:Week:Daily, Summer Control Type Week Sch,
   Summer Control Type Day Sch,Summer Control Type Day Sch,Summer Control Type Day Sch,
   Summer Control Type Day Sch,Summer Control Type Day Sch,Summer Control Type Day Sch,
   Summer Control Type Day Sch,Summer Control Type Day Sch,Summer Control Type Day Sch,
   Summer Control Type Day Sch,Summer Control Type Day Sch,Summer Control Type Day Sch;

Schedule:Week:Daily, Winter Control Type Week Sch,
   Winter Control Type Day Sch,Winter Control Type Day Sch,Winter Control Type Day Sch,
   Winter Control Type Day Sch,Winter Control Type Day Sch,Winter Control Type Day Sch,
   Winter Control Type Day Sch,Winter Control Type Day Sch,Winter Control Type Day Sch,
   Winter Control Type Day Sch,Winter Control Type Day Sch,Winter Control Type Day Sch;

Schedule:Week:Daily, Summer Control Type Week Sch - cool,
   Summer Control Type Day Sch - cool,Summer Control Type Day Sch - cool,Summer Control Type Day Sch - cool,
   Summer Control Type Day Sch - cool,Summer Control Type Day Sch - cool,Summer Control Type Day Sch - cool,
   Summer Control Type Day Sch - cool,Summer Control Type Day Sch - cool,Summer Control Type Day Sch - cool,
   Summer Control Type Day Sch - cool,Summer Control Type Day Sch - cool,Summer Control Type Day Sch - cool;

Schedule:Week:Daily, Winter Control Type Week Sch - heat,
   Winter Control Type Day Sch - heat,Winter Control Type Day Sch - heat,Winter Control Type Day Sch - heat,
   Winter Control Type Day Sch - heat,Winter Control Type Day Sch - heat,Winter Control Type Day Sch - heat,
   Winter Control Type Day Sch - heat,Winter Control Type Day Sch - heat,Winter Control Type Day Sch - heat,
   Winter Control Type Day Sch - heat,Winter Control Type Day Sch - heat,Winter Control Type Day Sch - heat;

!Material:InfraredTransparent,
!IRTMaterial; !- Name

!Construction,
!IRTSurface,  !- Name
!IRTMaterial; !- Outside Layer





Material:NoMass, 
LinearBridgingLayer,                  ! Material Name
Rough,                                ! Roughness
0.6267 ,                              ! Resistance {M**2K/W} will give Total Resistance 1
0.0000100 ,                           ! Thermal Absorptance
0.0000000 ,                           ! Solar Absorptance
0.0000000 ;                           ! Visible Absorptance

Construction,
LinearBridgingConstruction,           !- Name
LinearBridgingLayer;                  !- Layer

Schedule:Compact,
TypOperativeTempControlSch,
Temperature,
Through: 31 Dec,
For: SummerDesignDay WinterDesignDay,
Until: 24:00, 0.0,
For: AllOtherDays,
Until: 24:00, 0.5;

Schedule:Compact, 
      OnWinterDesignDay,                          ! Name
      Any Number,                                 
      Through: 12/31,                             
      For: WinterDesignDay,                       ! All days in year
      Until: 24:00, 1,
      For: AllOtherDays,
      Until: 24:00, 0;     

Schedule:Compact, 
      OnSummerDesignDay,                          ! Name
      Any Number,                                 
      Through: 12/31,                             
      For: SummerDesignDay,                       ! All days in year
      Until: 24:00, 1,
      For: AllOtherDays,
      Until: 24:00, 0;     

Material:InfraredTransparent,
IRTMaterial; !- Name

Construction,
IRTSurface,  !- Name
IRTMaterial; !- Outside Layer


RunPeriodControl:SpecialDays, New Years Day, 1 Jan, 1, Holiday;

RunPeriodControl:SpecialDays, Christmas Day, 25 Dec, 1, Holiday;

RunPeriodControl:SpecialDays, Boxing Day, 26 Dec, 1, Holiday;

RunPeriodControl:SpecialDays, Easter Monday, 2nd Monday in April, 1, Holiday;

RunPeriodControl:SpecialDays, Easter Sunday, 1st Sunday in April, 1, Holiday;
Schedule:Compact, 
2, 
Any Number,
Through: 12/31,
For: AllDays,   
Until: 24:00,   1 ;

Schedule:Compact,
7,
Any Number,
Through: 12/31,
For: AllDays,
Until: 24:00,  0  ;

Schedule:Compact,
3324,
Fraction,
Through: 31 Dec,
For: Weekdays SummerDesignDay,
Until: 06:00, 0,
Until: 07:00, 0.25,
Until: 09:00, 1,
Until: 10:00, 0.25,
Until: 18:00, 0,
Until: 19:00, 0.5,
Until: 21:00, 1,
Until: 22:00, 0.3,
Until: 24:00, 0,
For: Weekends,
Until: 06:00, 0,
Until: 07:00, 0.25,
Until: 09:00, 1,
Until: 10:00, 0.25,
Until: 18:00, 0,
Until: 19:00, 0.5,
Until: 21:00, 1,
Until: 22:00, 0.3,
Until: 24:00, 0,
For: Holidays,
Until: 06:00, 0,
Until: 07:00, 0.25,
Until: 09:00, 1,
Until: 10:00, 0.25,
Until: 18:00, 0,
Until: 19:00, 0.5,
Until: 21:00, 1,
Until: 22:00, 0.3,
Until: 24:00, 0,
For: WinterDesignDay AllOtherDays,
Until: 24:00, 0;

Schedule:Compact,
3325,
Fraction,
Through: 31 Dec,
For: Weekdays SummerDesignDay,
Until: 06:00, 0,
Until: 10:00, 1,
Until: 18:00, 0,
Until: 22:00, 1,
Until: 24:00, 0,
For: Weekends,
Until: 06:00, 0,
Until: 10:00, 1,
Until: 18:00, 0,
Until: 22:00, 1,
Until: 24:00, 0,
For: Holidays,
Until: 06:00, 0,
Until: 10:00, 1,
Until: 18:00, 0,
Until: 22:00, 1,
Until: 24:00, 0,
For: WinterDesignDay AllOtherDays,
Until: 24:00, 0;

Schedule:Compact,
3326,
Fraction,
Through: 31 Dec,
For: Weekdays SummerDesignDay,
Until: 07:00, 0.06196,
Until: 08:00, 0.53098,
Until: 09:00, 1,
Until: 10:00, 0.53098,
Until: 17:00, 0.06196,
Until: 18:00, 0.29647,
Until: 19:00, 0.53098,
Until: 20:00, 0.76549,
Until: 22:00, 1,
Until: 23:00, 0.76549,
Until: 24:00, 0.29647,
For: Weekends,
Until: 07:00, 0.06196,
Until: 08:00, 0.53098,
Until: 09:00, 1,
Until: 10:00, 0.53098,
Until: 17:00, 0.06196,
Until: 18:00, 0.29647,
Until: 19:00, 0.53098,
Until: 20:00, 0.76549,
Until: 22:00, 1,
Until: 23:00, 0.76549,
Until: 24:00, 0.29647,
For: Holidays,
Until: 07:00, 0.06196,
Until: 08:00, 0.53098,
Until: 09:00, 1,
Until: 10:00, 0.53098,
Until: 17:00, 0.06196,
Until: 18:00, 0.29647,
Until: 19:00, 0.53098,
Until: 20:00, 0.76549,
Until: 22:00, 1,
Until: 23:00, 0.76549,
Until: 24:00, 0.29647,
For: WinterDesignDay AllOtherDays,
Until: 24:00, 0;

Schedule:Compact,
3329,
Fraction,
Through: 31 Dec,
For: Weekdays SummerDesignDay,
Until: 07:00, 1,
Until: 08:00, 0.5,
Until: 09:00, 0.25,
Until: 22:00, 0,
Until: 23:00, 0.25,
Until: 24:00, 0.75,
For: Weekends,
Until: 07:00, 1,
Until: 08:00, 0.5,
Until: 09:00, 0.25,
Until: 22:00, 0,
Until: 23:00, 0.25,
Until: 24:00, 0.75,
For: Holidays,
Until: 07:00, 1,
Until: 08:00, 0.5,
Until: 09:00, 0.25,
Until: 22:00, 0,
Until: 23:00, 0.25,
Until: 24:00, 0.75,
For: WinterDesignDay AllOtherDays,
Until: 24:00, 0;

Schedule:Compact,
3330,
Fraction,
Through: 31 Dec,
For: Weekdays SummerDesignDay,
Until: 07:00, 0,
Until: 10:00, 1,
Until: 19:00, 0,
Until: 23:00, 1,
Until: 24:00, 0,
For: Weekends,
Until: 07:00, 0,
Until: 10:00, 1,
Until: 19:00, 0,
Until: 23:00, 1,
Until: 24:00, 0,
For: Holidays,
Until: 07:00, 0,
Until: 10:00, 1,
Until: 19:00, 0,
Until: 23:00, 1,
Until: 24:00, 0,
For: WinterDesignDay AllOtherDays,
Until: 24:00, 0;

Schedule:Compact,
3331,
Fraction,
Through: 31 Dec,
For: Weekdays SummerDesignDay,
Until: 07:00, 0.06993,
Until: 08:00, 0.53497,
Until: 09:00, 1,
Until: 10:00, 0.53497,
Until: 17:00, 0.06993,
Until: 18:00, 0.30245,
Until: 19:00, 0.53497,
Until: 20:00, 0.76748,
Until: 22:00, 1,
Until: 23:00, 0.76748,
Until: 24:00, 0.30245,
For: Weekends,
Until: 07:00, 0.06993,
Until: 08:00, 0.53497,
Until: 09:00, 1,
Until: 10:00, 0.53497,
Until: 17:00, 0.06993,
Until: 18:00, 0.30245,
Until: 19:00, 0.53497,
Until: 20:00, 0.76748,
Until: 22:00, 1,
Until: 23:00, 0.76748,
Until: 24:00, 0.30245,
For: Holidays,
Until: 07:00, 0.06993,
Until: 08:00, 0.53497,
Until: 09:00, 1,
Until: 10:00, 0.53497,
Until: 17:00, 0.06993,
Until: 18:00, 0.30245,
Until: 19:00, 0.53497,
Until: 20:00, 0.76748,
Until: 22:00, 1,
Until: 23:00, 0.76748,
Until: 24:00, 0.30245,
For: WinterDesignDay AllOtherDays,
Until: 24:00, 0;

Schedule:Compact,
3334,
Fraction,
Through: 31 Dec,
For: Weekdays SummerDesignDay,
Until: 07:00, 0,
Until: 10:00, 1,
Until: 19:00, 0,
Until: 23:00, 0.2,
Until: 24:00, 0,
For: Weekends,
Until: 07:00, 0,
Until: 10:00, 1,
Until: 19:00, 0,
Until: 23:00, 0.2,
Until: 24:00, 0,
For: Holidays,
Until: 07:00, 0,
Until: 10:00, 1,
Until: 19:00, 0,
Until: 23:00, 0.2,
Until: 24:00, 0,
For: WinterDesignDay AllOtherDays,
Until: 24:00, 0;

Schedule:Compact,
3335,
Fraction,
Through: 31 Dec,
For: Weekdays SummerDesignDay,
Until: 07:00, 0,
Until: 10:00, 1,
Until: 19:00, 0,
Until: 23:00, 1,
Until: 24:00, 0,
For: Weekends,
Until: 07:00, 0,
Until: 10:00, 1,
Until: 19:00, 0,
Until: 23:00, 1,
Until: 24:00, 0,
For: Holidays,
Until: 07:00, 0,
Until: 10:00, 1,
Until: 19:00, 0,
Until: 23:00, 1,
Until: 24:00, 0,
For: WinterDesignDay AllOtherDays,
Until: 24:00, 0;

Schedule:Compact,
3336,
Fraction,
Through: 31 Dec,
For: Weekdays SummerDesignDay,
Until: 06:00, 0.05997,
Until: 07:00, 0.29498,
Until: 09:00, 1,
Until: 10:00, 0.29498,
Until: 18:00, 0.05997,
Until: 19:00, 0.52999,
Until: 21:00, 1,
Until: 22:00, 0.34198,
Until: 24:00, 0.05997,
For: Weekends,
Until: 24:00, 0.05997,
For: Holidays,
Until: 24:00, 0.05997,
For: WinterDesignDay AllOtherDays,
Until: 24:00, 0;

Schedule:Compact,
3349,
Fraction,
Through: 31 Dec,
For: Weekdays SummerDesignDay,
Until: 16:00, 0,
Until: 18:00, 0.5,
Until: 22:00, 1,
Until: 23:00, 0.66667,
Until: 24:00, 0,
For: Weekends,
Until: 16:00, 0,
Until: 18:00, 0.5,
Until: 22:00, 1,
Until: 23:00, 0.66667,
Until: 24:00, 0,
For: Holidays,
Until: 16:00, 0,
Until: 18:00, 0.5,
Until: 22:00, 1,
Until: 23:00, 0.66667,
Until: 24:00, 0,
For: WinterDesignDay AllOtherDays,
Until: 24:00, 0;

Schedule:Compact,
3350,
Fraction,
Through: 31 Dec,
For: Weekdays SummerDesignDay,
Until: 16:00, 0,
Until: 23:00, 1,
Until: 24:00, 0,
For: Weekends,
Until: 16:00, 0,
Until: 23:00, 1,
Until: 24:00, 0,
For: Holidays,
Until: 16:00, 0,
Until: 23:00, 1,
Until: 24:00, 0,
For: WinterDesignDay AllOtherDays,
Until: 24:00, 0;

Schedule:Compact,
3351,
Fraction,
Through: 31 Dec,
For: Weekdays SummerDesignDay,
Until: 16:00, 0.06413,
Until: 18:00, 0.53206,
Until: 22:00, 1,
Until: 23:00, 0.68804,
Until: 24:00, 0.06413,
For: Weekends,
Until: 07:00, 0.06413,
Until: 23:00, 1,
Until: 24:00, 0.34489,
For: Holidays,
Until: 07:00, 0.06413,
Until: 23:00, 1,
Until: 24:00, 0.34489,
For: WinterDesignDay AllOtherDays,
Until: 24:00, 0;

Schedule:Compact,
3354,
Fraction,
Through: 31 Dec,
For: Weekdays SummerDesignDay,
Until: 07:00, 0,
Until: 10:00, 1,
Until: 19:00, 0,
Until: 23:00, 0.2,
Until: 24:00, 0,
For: Weekends,
Until: 07:00, 0,
Until: 23:00, 1,
Until: 24:00, 0.3,
For: Holidays,
Until: 07:00, 0,
Until: 23:00, 1,
Until: 24:00, 0.3,
For: WinterDesignDay AllOtherDays,
Until: 24:00, 0;

Schedule:Compact,
3355,
Fraction,
Through: 31 Dec,
For: Weekdays SummerDesignDay,
Until: 07:00, 0,
Until: 10:00, 1,
Until: 19:00, 0,
Until: 23:00, 1,
Until: 24:00, 0,
For: Weekends,
Until: 07:00, 0,
Until: 24:00, 1,
For: Holidays,
Until: 07:00, 0,
Until: 24:00, 1,
For: WinterDesignDay AllOtherDays,
Until: 24:00, 0;

Schedule:Compact,
3356,
Fraction,
Through: 31 Dec,
For: Weekdays SummerDesignDay,
Until: 07:00, 0.06368,
Until: 08:00, 0.53184,
Until: 09:00, 1,
Until: 10:00, 0.53184,
Until: 17:00, 0.06368,
Until: 18:00, 0.29776,
Until: 19:00, 0.53184,
Until: 20:00, 0.76592,
Until: 22:00, 1,
Until: 23:00, 0.76592,
Until: 24:00, 0.29776,
For: Weekends,
Until: 07:00, 0.06368,
Until: 23:00, 1,
Until: 24:00, 0.34458,
For: Holidays,
Until: 07:00, 0.06368,
Until: 23:00, 1,
Until: 24:00, 0.34458,
For: WinterDesignDay AllOtherDays,
Until: 24:00, 0;

Schedule:Compact,
6072,
Fraction,
Through: 31 Dec,
For: Weekdays,
Until: 05:00,      1.00,
Until: 06:00,      0.80,
Until: 08:00,      0.75,
Until: 09:00,      0.50,
Until: 15:00,      0.43,
Until: 18:00,      0.50,
Until: 21:00,      0.75,
Until: 24:00,      0.80,
For: Saturday,
Until: 07:00,      1.00,
Until: 08:00,      0.80,
Until: 09:00,      0.75,
Until: 10:00,      0.50,
Until: 15:00,      0.43,
Until: 18:00,      0.50,
Until: 21:00,      0.75,
Until: 24:00,      0.80,
For: Sunday Holidays,
Until: 07:00,      1.00,
Until: 08:00,      0.80,
Until: 09:00,      0.75,
Until: 10:00,      0.50,
Until: 15:00,      0.43,
Until: 18:00,      0.50,
Until: 21:00,      0.75,
Until: 24:00,      0.80,
For: SummerDesignDay,
Until: 24:00,      1,
For: AllOtherDays,
Until: 24:00,      0     ;

Schedule:Compact,
6073,
Fraction,
Through: 31 Dec,
For: Weekdays,
Until: 06:00,      0.00,
Until: 22:00,      1.00,
Until: 23:00,      0.80,
Until: 24:00,      0.20,
For: Saturday,
Until: 07:00,      0.00,
Until: 22:00,      1.00,
Until: 23:00,      0.80,
Until: 24:00,      0.20,
For: Sunday Holidays,
Until: 07:00,      0.00,
Until: 22:00,      1.00,
Until: 23:00,      0.80,
Until: 24:00,      0.20,
For: SummerDesignDay,
Until: 24:00,      1,
For: AllOtherDays,
Until: 24:00,      0     ;

Schedule:Compact, 
8060, 
Any Number,
Through: 12/31,
For: AllDays,   
Until: 24:00,   0.1370 ;


WindowMaterial:Gas,1001,
Air,
 .006;

WindowMaterial:Gas,Half thickness 1001,
Air,
 .003;



WindowMaterial:Glazing,2,
SpectralAverage,
,
.003,
.837,
.075,
.075,
.898,
.081,
.081,
.0,
.84,
.84,
.9,
1;
Material, 1_1_37,
Rough,
.1327,
0.04,
10,
1400,
0.9,
0.6,
0.6;

Material, 1_2_9,
Rough,
.1,
1.13,
2000,
1000,
0.9,
0.6,
0.6;

Material, 1_3_29,
Rough,
.07,
0.41,
1200,
840,
0.9,
0.73,
0.73;

Material, 1_4_34,
Rough,
.03,
0.14,
650,
1200,
0.9,
0.78,
0.78;

Material, 3_1_7,
Rough,
.1,
1.4,
2100,
840,
0.9,
0.6,
0.6;

Material, 5_1_5,
Rough,
.1,
0.84,
1700,
800,
0.9,
0.7,
0.7;

Material, 5_2_103,
Rough,
.0795,
0.034,
35,
1400,
0.9,
0.6,
0.6;

Material, 5_3_11,
Rough,
.1,
0.51,
1400,
1000,
0.9,
0.6,
0.6;

Material, 5_4_66,
Rough,
.013,
0.4,
1000,
1000,
0.9,
0.5,
0.5;

Material, 7_1_3336,
Rough,
.0508,
2.21,
2321.4,
837.36,
0.9,
0.7,
0.7;

Material, 7_3_28,
Rough,
.025,
0.028,
35,
1590,
0.9,
0.6,
0.6;

Material, 7_5_27,
Rough,
.013,
0.25,
900,
1000,
0.9,
0.5,
0.5;

Material, 9_1_108,
Rough,
.035,
0.19,
700,
2390,
0.9,
0.5,
0.5;

Material, 11_1_36,
Rough,
.01,
0.15,
700,
1420,
0.9,
0.78,
0.78;

Material, 11_2_20,
Rough,
.1319,
0.04,
12,
840,
0.9,
0.6,
0.6;

Material, 11_3_8,
Rough,
.1,
0.38,
1200,
1000,
0.9,
0.6,
0.6;

Material, 11_5_113,
Rough,
.013,
0.25,
2800,
896,
0.9,
0.5,
0.5;

Material, 13_1_27,
Rough,
.025,
0.25,
900,
1000,
0.9,
0.5,
0.5;

Material, 17_1_33,
Rough,
.025,
1,
2000,
800,
0.9,
0.7,
0.7;

Material, 17_2_111,
Rough,
.2423,
0.04,
30,
840,
0.9,
0.6,
0.6;

Material, 17_3_77,
Rough,
.005,
0.19,
960,
837,
0.9,
0.8,
0.8;

Material, 21_1_17,
Rough,
.025,
0.5,
1300,
1000,
0.9,
0.7,
0.7;

Material, 21_2_111,
Rough,
.1482,
0.04,
30,
840,
0.9,
0.6,
0.6;

Material, 21_3_34,
Rough,
.005,
0.14,
650,
1200,
0.9,
0.78,
0.78;


Construction, 1,
1_1_37,
1_2_9,
1_3_29,
1_4_34;

Construction, 2,
1_4_34,
1_3_29,
1_2_9,
1_1_37;

Construction, 3,
3_1_7;

Construction, 4,
3_1_7;

Construction, 5,
5_1_5,
5_2_103,
5_3_11,
5_4_66;

Construction, 6,
5_4_66,
5_3_11,
5_2_103,
5_1_5;
Material:NoMass, 7_RVAL_2,
Rough,
.15,
0.9,
0.7,
0.7;
Material:NoMass, 7_RVAL_4,
Rough,
.15,
0.9,
0.7,
0.7;

Construction, 7,
7_1_3336,
7_RVAL_2,
7_3_28,
7_RVAL_4,
7_5_27;
Material:NoMass, 8_RVAL_2,
Rough,
.15,
0.9,
0.7,
0.7;
Material:NoMass, 8_RVAL_4,
Rough,
.15,
0.9,
0.7,
0.7;

Construction, 8,
7_5_27,
8_RVAL_2,
7_3_28,
8_RVAL_4,
7_1_3336;

Construction, 9,
9_1_108;

Construction, 10,
9_1_108;
Material:NoMass, 11_RVAL_4,
Rough,
.18,
0.9,
0.7,
0.7;

Construction, 11,
11_1_36,
11_2_20,
11_3_8,
11_RVAL_4,
11_5_113;
Material:NoMass, 12_RVAL_2,
Rough,
.18,
0.9,
0.7,
0.7;

Construction, 12,
11_5_113,
12_RVAL_2,
11_3_8,
11_2_20,
11_1_36;
Material:NoMass, 13_RVAL_2,
Rough,
.15,
0.9,
0.7,
0.7;

Construction, 13,
13_1_27,
13_RVAL_2,
13_1_27;
Material:NoMass, 14_RVAL_2,
Rough,
.15,
0.9,
0.7,
0.7;

Construction, 14,
13_1_27,
14_RVAL_2,
13_1_27;

Construction, 15,
3_1_7;

Construction, 16,
3_1_7;

Construction, 17,
17_1_33,
17_2_111,
17_3_77;

Construction, 18,
17_3_77,
17_2_111,
17_1_33;
Material:NoMass, 19_RVAL_2,
Rough,
.15,
0.9,
0.7,
0.7;

Construction, 19,
17_1_33,
19_RVAL_2,
17_3_77;
Material:NoMass, 20_RVAL_2,
Rough,
.15,
0.9,
0.7,
0.7;

Construction, 20,
17_3_77,
20_RVAL_2,
17_1_33;

Construction, 21,
21_1_17,
21_2_111,
21_3_34;

Construction, 22,
21_3_34,
21_2_111,
21_1_17;



WindowMaterial:SimpleGlazingSystem,
Simple 1.44UPVC Frame 20YO Dbl LoE (e2=.1) Clr 3mm/13mm Air - 1001,
1.44,
.598,
.769;

Construction,1.44UPVC Frame 20YO Dbl LoE (e2=.1) Clr 3mm/13mm Air - 1001,
Simple 1.44UPVC Frame 20YO Dbl LoE (e2=.1) Clr 3mm/13mm Air - 1001;

Construction,Project internal glazing - 1002,
2,
1001,
2,
1001,
2;

HeatBalanceAlgorithm, 
ConductionTransferFunction,
2000,
0.00000001,
1000;

ShadowCalculation, PolygonClipping, Periodic, 20,  15000, SutherlandHodgman, , SimpleSkyDiffuseModeling;

SurfaceConvectionAlgorithm:Inside,TARP;
SurfaceConvectionAlgorithm:Outside,DOE-2;
ZoneCapacitanceMultiplier:ResearchSpecial, All, , 1, 1.0, 1.0, 1.0;

Building, Building,
0,
Suburbs,
 .04,
 .4,
FullExterior,
25,
6;

GlobalGeometryRules, LowerLeftCorner, CounterClockWise, Relative;
Zone, 14126,
0,
0,
0,
0,
1 ,
1,
,
 76.965,
 31.543,
TARP,
,
No;


ZoneInfiltration:DesignFlowRate, 14126 Infiltration,
14126,
2,
Flow/zone,
.014965,
,
,
,
1,
0,
0,
0;


BuildingSurface:Detailed, 
14126_GroundFloor_0_0_0,
Floor, 1,
14126,
Ground, , 
NoSun, 
NoWind, 
AutoCalculate, 
4, 
 16.988932412,-2.8215642081, 0,
 22.0801012366,-7.9127330327, 0,
 18.4031459744,-11.5896882948, 0,
 13.3119771498,-6.4985194703, 0;

BuildingSurface:Detailed, 
14126_Ceiling_1_0_0,
Ceiling, 3,
14126,
Surface, 433_Floor_1_0_10000, 
NoSun, 
NoWind, 
0, 
4, 
 22.0801012395,-7.9127330356, 2.44,
 16.988932415,-2.8215642111, 2.44,
 13.3119771528,-6.4985194732, 2.44,
 18.4031459773,-11.5896882978, 2.44;

BuildingSurface:Detailed, 
433_Floor_1_0_10000,
Floor, 4,
433,
Surface, 14126_Ceiling_1_0_0, 
NoSun, 
NoWind, 
0, 
4, 
 18.4031459773,-11.5896882978, 2.44,
 13.3119771528,-6.4985194732, 2.44,
 16.988932415,-2.8215642111, 2.44,
 22.0801012395,-7.9127330356, 2.44;

BuildingSurface:Detailed, 
14126_Partition_2_0_0,
Wall, 6,
14126,
Surface, 14135_Partition_5_0_10001, 
NoSun, 
NoWind, 
0, 
4, 
 14.9400905135,-4.8704061066, 0,
 13.3119771498,-6.4985194703, 0,
 13.3119771498,-6.4985194703, 2.44,
 14.9400905135,-4.8704061066, 2.44;

BuildingSurface:Detailed, 
14135_Partition_5_0_10001,
Wall, 5,
14135,
Surface, 14126_Partition_2_0_0, 
NoSun, 
NoWind, 
0, 
4, 
 13.3119771498,-6.4985194703, 0,
 14.9400905135,-4.8704061066, 0,
 14.9400905135,-4.8704061066, 2.44,
 13.3119771498,-6.4985194703, 2.44;

BuildingSurface:Detailed, 
14126_Wall_3_0_0,
Wall, 7,
14126,
Outdoors, , 
SunExposed, 
WindExposed, 
AutoCalculate, 
4, 
 13.3119771498,-6.4985194703, 0,
 18.4031459744,-11.5896882948, 0,
 18.4031459744,-11.5896882948, 2.44,
 13.3119771498,-6.4985194703, 2.44;

FenestrationSurface:Detailed, 14126_Wall_3_0_0_0_0_0_Win,
Window, 
1.44UPVC Frame 20YO Dbl LoE (e2=.1) Clr 3mm/13mm Air - 1001,
14126_Wall_3_0_0,
,
AutoCalculate, 
1, 
1, 
4, 
 16.0211119341,-9.2076542545, 1.20364868,
 16.3505290479,-9.5370713683, 1.20364868,
 16.3505290479,-9.5370713683, 1.8121362,
 16.0211119341,-9.2076542545, 1.8121362;

BuildingSurface:Detailed, 
14126_Wall_4_0_0,
Wall, 7,
14126,
Outdoors, , 
SunExposed, 
WindExposed, 
AutoCalculate, 
4, 
 18.4031459744,-11.5896882948, 0,
 22.0801012366,-7.9127330327, 0,
 22.0801012366,-7.9127330327, 2.44,
 18.4031459744,-11.5896882948, 2.44;

FenestrationSurface:Detailed, 14126_Wall_4_0_0_0_0_0_Win,
Window, 
1.44UPVC Frame 20YO Dbl LoE (e2=.1) Clr 3mm/13mm Air - 1001,
14126_Wall_4_0_0,
,
AutoCalculate, 
1, 
1, 
4, 
 20.8339450499,-9.1588892193, 1.09886486,
 21.4124641306,-8.5803701386, 1.09886486,
 21.4124641306,-8.5803701386, 2.21818916,
 20.8339450499,-9.1588892193, 2.21818916;

BuildingSurface:Detailed, 
14126_Wall_5_0_0,
Wall, 7,
14126,
Outdoors, , 
SunExposed, 
WindExposed, 
AutoCalculate, 
4, 
 22.0801012366,-7.9127330327, 0,
 16.988932412,-2.8215642081, 0,
 16.988932412,-2.8215642081, 2.44,
 22.0801012366,-7.9127330327, 2.44;

FenestrationSurface:Detailed, 14126_Wall_5_0_0_0_0_1_Door,
Door, 9,
14126_Wall_5_0_0,
,
AutoCalculate, 
, 
1, 
4, 
 20.8401971849,-6.6728289811, .002,
 19.0158815945,-4.8485133907, .002,
 19.0158815945,-4.8485133907, 2.25618916,
 20.8401971849,-6.6728289811, 2.25618916;

FenestrationSurface:Detailed, 14126_Wall_5_0_0_1_0_0_Win,
Window, 
1.44UPVC Frame 20YO Dbl LoE (e2=.1) Clr 3mm/13mm Air - 1001,
14126_Wall_5_0_0,
,
AutoCalculate, 
1, 
1, 
4, 
 18.172458457,-4.0050902531, 1.09790543,
 17.6999507907,-3.5325825868, 1.09790543,
 17.6999507907,-3.5325825868, 2.21818916,
 18.172458457,-4.0050902531, 2.21818916;

BuildingSurface:Detailed, 
14126_Partition_6_0_0,
Wall, 6,
14126,
Surface, 14199_Partition_4_0_10002, 
NoSun, 
NoWind, 
0, 
4, 
 16.988932412,-2.8215642081, 0,
 15.785083117,-4.0254135031, 0,
 15.785083117,-4.0254135031, 2.44,
 16.988932412,-2.8215642081, 2.44;

BuildingSurface:Detailed, 
14199_Partition_4_0_10002,
Wall, 5,
14199,
Surface, 14126_Partition_6_0_0, 
NoSun, 
NoWind, 
0, 
4, 
 15.785083117,-4.0254135031, 0,
 16.988932412,-2.8215642081, 0,
 16.988932412,-2.8215642081, 2.44,
 15.785083117,-4.0254135031, 2.44;

BuildingSurface:Detailed, 
14126_Partition_7_0_0,
Wall, 6,
14126,
Surface, 14175_Partition_10_0_10003, 
NoSun, 
NoWind, 
0, 
4, 
 15.785083117,-4.0254135031, 0,
 14.9400905135,-4.8704061066, 0,
 14.9400905135,-4.8704061066, 2.44,
 15.785083117,-4.0254135031, 2.44;

BuildingSurface:Detailed, 
14175_Partition_10_0_10003,
Wall, 5,
14175,
Surface, 14126_Partition_7_0_0, 
NoSun, 
NoWind, 
0, 
4, 
 14.9400905135,-4.8704061066, 0,
 15.785083117,-4.0254135031, 0,
 15.785083117,-4.0254135031, 2.44,
 14.9400905135,-4.8704061066, 2.44;

Zone, 14135,
0,
0,
0,
0,
1 ,
1,
,
 28.1624,
 11.542,
TARP,
,
Yes;


PEOPLE, People 14135,
14135,
3329,
People/Area,
,
 .022938776,
,
 .3,
AutoCalculate,
Activity Schedule 14135,
.0000000382,
No,
ZoneAveraged,
,
Work efficiency,
ClothingInsulationSchedule,
,
Clothing Schedule 14135,
8060;

Schedule:Compact, Activity Schedule 14135,
Any Number,
Through: 12/31,
For: AllDays,
Until: 24:00,  81;

Schedule:Compact, Clothing Schedule 14135,
Any Number,
Through: 4/1,
For: AllDays,
Until: 24:00,  1,
Through: 9/30,
For: AllDays,
Until: 24:00,  .5,
Through: 12/31,
For: AllDays,
Until: 24:00,  1;

Lights, 14135 General lighting,
14135,
3330,
Watts/Area,
,
5,
,
0,
.42,
.18,
1,
ELECTRIC EQUIPMENT#14135#GeneralLights;

OtherEquipment, 14135 Equipment gain,
Electricity,
14135,
3331,
Watts/Area,
,
3.58,
,
0,
.2,
0,
0,
General;

WaterUse:Equipment,
DHW 14135,
DHW 14135,
 1.9419873015873E-07,
3329,
DHW Supply Temperature 14135,
DHW Supply Temperature 14135,
DHW Mains Temperature 14135,
14135,
,
;

Schedule:Compact, DHW Supply Temperature 14135,
Temperature,
Through: 12/31,
For: AllDays,
Until: 24:00, 65;

Schedule:Compact, DHW Mains Temperature 14135,
Temperature,
Through: 12/31,
For: AllDays,
Until: 24:00, 10;

ZoneInfiltration:DesignFlowRate, 14135 Infiltration,
14135,
2,
Flow/zone,
.005476,
,
,
,
1,
0,
0,
0;


BuildingSurface:Detailed, 
14135_GroundFloor_0_0_0,
Floor, 1,
14135,
Ground, , 
NoSun, 
NoWind, 
AutoCalculate, 
4, 
 12.4563779446,-2.3866935377, 0,
 14.9400905135,-4.8704061066, 0,
 12.1735352321,-7.636961388, 0,
 9.6898226632,-5.1532488191, 0;

BuildingSurface:Detailed, 
14135_Ceiling_1_0_0,
Ceiling, 3,
14135,
Surface, 12219_Floor_0_0_10004, 
NoSun, 
NoWind, 
0, 
4, 
 14.6537122701,-5.1567843559, 2.44,
 12.6197196282,-3.122791714, 2.44,
 10.7706353954,-4.9718759468, 2.44,
 12.8046280373,-7.0058685888, 2.44;

BuildingSurface:Detailed, 
12219_Floor_0_0_10004,
Floor, 4,
12219,
Surface, 14135_Ceiling_1_0_0, 
NoSun, 
NoWind, 
0, 
4, 
 12.8046280373,-7.0058685888, 2.44,
 10.7706353954,-4.9718759468, 2.44,
 12.6197196282,-3.122791714, 2.44,
 14.6537122701,-5.1567843559, 2.44;

BuildingSurface:Detailed, 
14135_Ceiling_1_1_0,
Ceiling, 3,
14135,
Surface, 12286_Floor_15_0_10005, 
NoSun, 
NoWind, 
0, 
4, 